/batch
/config,noeldb,1     ! force off writing results to database
*get,_wallstrt,active,,time,wall
! ANSYS input file written by Workbench version 15.0.7  Release
! File used for geometry attach: G:\final ansys\pressure sensor_files\dp0\SYS-1\DM\SYS-1.agdb
/title,pressure sensor--Static Structural (A5)
*DIM,_wb_ProjectScratch_dir,string,248
_wb_ProjectScratch_dir(1) = 'G:\final ansys\_ProjectScratch\ScrAC3E\'
*DIM,_wb_SolverFiles_dir,string,248
_wb_SolverFiles_dir(1) = 'G:\final ansys\pressure sensor_files\dp0\SYS-1\MECH\'
*DIM,_wb_userfiles_dir,string,248
_wb_userfiles_dir(1) = 'G:\final ansys\pressure sensor_files\user_files\'
/com,--- Data in consistent uMKS units.
/units,uMKS
/nopr
/wb,file,start              !  signify a WB generated input file
/prep7
! Turn off shape checking because checks already performed inside WB mesher.
! See help system for more information.
SHPP,OFF,,NOWARN
ncnv,1,1e9             ! uMKS system, Increase DOF limit to 1e9
/nolist
etcon,set             ! allow ANSYS to choose best KEYOP's for 180x elements
/com,*********** Nodes for the whole assembly ***********
nblock,3
(1i9,3e20.9e3)
        1   -3.147108454E+004   -1.504274672E+004   -2.500000000E+004
        2   -3.147108454E+004   -1.504274672E+004   -2.000000000E+004
        3   -3.147108454E+004   -1.504274672E+004   -1.500000000E+004
        4   -3.147108454E+004   -1.504274672E+004   -1.000000000E+004
        5   -3.147108454E+004   -1.504274672E+004   -5.000000000E+003
        6   -3.147108454E+004   -1.504274672E+004    0.000000000E+000
        7   -3.147108454E+004   -1.504274672E+004    5.000000000E+003
        8   -3.147108454E+004   -1.504274672E+004    1.000000000E+004
        9   -3.147108454E+004   -1.504274672E+004    1.500000000E+004
       10   -3.147108454E+004   -1.504274672E+004    2.000000000E+004
       11   -3.147108454E+004   -1.504274672E+004    2.500000000E+004
       12    3.149266324E+004    1.502379788E+004   -2.500000000E+004
       13    3.149266324E+004    1.502379788E+004   -2.000000000E+004
       14    3.149266324E+004    1.502379788E+004   -1.500000000E+004
       15    3.149266324E+004    1.502379788E+004   -1.000000000E+004
       16    3.149266324E+004    1.502379788E+004   -5.000000000E+003
       17    3.149266324E+004    1.502379788E+004    0.000000000E+000
       18    3.149266324E+004    1.502379788E+004    5.000000000E+003
       19    3.149266324E+004    1.502379788E+004    1.000000000E+004
       20    3.149266324E+004    1.502379788E+004    1.500000000E+004
! ... 29707 like lines cut
/wb,elem,start            !  set before creation of elements
/com,*********** Elements for Body 1 "Solid" ***********
et,1,186
keyo,1,2,1          ! set full integration on SOLID186
eblock,19,solid,,296
(19i9)
        1        1        1        1        0        0        0        0       20        0      853     5123     5124     5411     5410     5162     5161     5630     5631
     5791     5796     6635     5793     5910     5912     7102     5915     5792     5795     6638     6636
        1        1        1        1        0        0        0        0       20        0      854     5161     5630     5631     5162     5196     5599     5600     5197
     5912     7102     5915     5910     6015     7045     6018     6013     5911     7046     7048     5914
        1        1        1        1        0        0        0        0       20        0      855     5196     5599     5600     5197     5231     5568     5569     5232
     6015     7045     6018     6013     6118     6984     6121     6116     6014     6985     6987     6017
        1        1        1        1        0        0        0        0       20        0      856     5231     5568     5569     5232     5266     5537     5538     5267
     6118     6984     6121     6116     6221     6923     6224     6219     6117     6924     6926     6120
        1        1        1        1        0        0        0        0       20        0      857     5266     5537     5538     5267     5301     5506     5507     5302
     6221     6923     6224     6219     6324     6862     6327     6322     6220     6863     6865     6223
        1        1        1        1        0        0        0        0       20        0      858     5301     5506     5507     5302     5336     5475     5476     5337
     6324     6862     6327     6322     6427     6801     6430     6425     6323     6802     6804     6326
        1        1        1        1        0        0        0        0       20        0      859     5336     5475     5476     5337     5371     5444     5445     5372
     6427     6801     6430     6425     6529     6713     6532     6528     6426     6714     6717     6429
        1        1        1        1        0        0        0        0       20        0      860     5371     5444     5445     5372     5680     5713     5714     5681
     6529     6713     6532     6528     7175     7220     7177     7174     6530     6715     6718     6533
        1        1        1        1        0        0        0        0       20        0      861     5122     5123     5410     5409     5163     5162     5631     5632
     5788     5793     6633     5790     5913     5915     7103     5918     5789     5792     6636     6634
        1        1        1        1        0        0        0        0       20        0      862     5162     5631     5632     5163     5197     5600     5601     5198
     5915     7103     5918     5913     6018     7047     6021     6016     5914     7048     7050     5917
! ... 573 like lines cut
!Material Id = {377D07D1-9A2D-4564-82F5-1AB5B25AD785}
/com,*********** Elements for Body 2 "Solid" ***********
et,2,186
keyo,2,2,1          ! set full integration on SOLID186
eblock,19,solid,,852
(19i9)
        2        2        2        2        0        0        0        0       20        0        1      188     1056      942      941      247     1407     1003     1004
     2134     4159     4155     2133     2357     4300     4299     2356     2132     4398     4158     4156
        2        2        2        2        0        0        0        0       20        0        2      188      941      942     1056      189      886      887     1087
     2133     4155     4159     2134     2137     4011     4015     2138     2130     4012     4014     4397
        2        2        2        2        0        0        0        0       20        0        3      189      886      887     1087      190      831      832     1118
     2137     4011     4015     2138     2141     3867     3871     2142     2135     3868     3870     4482
        2        2        2        2        0        0        0        0       20        0        4      190      831      832     1118      191      776      777     1149
     2141     3867     3871     2142     2145     3723     3727     2146     2139     3724     3726     4545
        2        2        2        2        0        0        0        0       20        0        5      191      776      777     1149      192      721      722     1180
     2145     3723     3727     2146     2149     3579     3583     2150     2143     3580     3582     4608
        2        2        2        2        0        0        0        0       20        0        6      192      721      722     1180      193      666      667     1211
     2149     3579     3583     2150     2153     3435     3439     2154     2147     3436     3438     4671
        2        2        2        2        0        0        0        0       20        0        7      193      666      667     1211      194      611      612     1242
     2153     3435     3439     2154     2157     3291     3295     2158     2151     3292     3294     4734
        2        2        2        2        0        0        0        0       20        0        8      194      611      612     1242      195      556      557     1273
     2157     3291     3295     2158     2161     3147     3151     2162     2155     3148     3150     4797
        2        2        2        2        0        0        0        0       20        0        9      195      556      557     1273      196      501      502     1304
     2161     3147     3151     2162     2165     3003     3007     2166     2159     3004     3006     4860
        2        2        2        2        0        0        0        0       20        0       10      196      501      502     1304      197      446      447     1335
     2165     3003     3007     2166     2169     2859     2863     2170     2163     2860     2862     4923
! ... 1685 like lines cut
!Material Id = {1D379A62-7F2A-4F97-9E41-56672500BB29}
/com,*********** Elements for Body 3 "Solid" ***********
et,3,186
keyo,3,2,1          ! set full integration on SOLID186
eblock,19,solid,,1768
(19i9)
        3        3        3        3        0        0        0        0       20        0     1149     8864     8986     8987     8865     8955    10587    10586     8954
    15613    15901    15616    15611    15813    19031    15811    15809    15612    15903    15906    15615
        3        3        3        3        0        0        0        0       20        0     1150     8821     9033     9034     8822     8864     8986     8987     8865
    15483    16016    15486    15481    15613    15901    15616    15611    15482    15902    15905    15485
        3        3        3        3        0        0        0        0       20        0     1151     8778     9080     9081     8779     8821     9033     9034     8822
    15353    16111    15356    15351    15483    16016    15486    15481    15352    16017    16019    15355
        3        3        3        3        0        0        0        0       20        0     1152     8735     9127     9128     8736     8778     9080     9081     8779
    15223    16206    15226    15221    15353    16111    15356    15351    15222    16112    16114    15225
        3        3        3        3        0        0        0        0       20        0     1153     8692     9174     9175     8693     8735     9127     9128     8736
    15093    16301    15096    15091    15223    16206    15226    15221    15092    16207    16209    15095
        3        3        3        3        0        0        0        0       20        0     1154     8649     9221     9222     8650     8692     9174     9175     8693
    14963    16396    14966    14961    15093    16301    15096    15091    14962    16302    16304    14965
        3        3        3        3        0        0        0        0       20        0     1155     8606     9268     9269     8607     8649     9221     9222     8650
    14833    16491    14836    14831    14963    16396    14966    14961    14832    16397    16399    14835
        3        3        3        3        0        0        0        0       20        0     1156     8563     9315     9316     8564     8606     9268     9269     8607
    14703    16586    14706    14701    14833    16491    14836    14831    14702    16492    16494    14705
        3        3        3        3        0        0        0        0       20        0     1157     8520     9362     9363     8521     8563     9315     9316     8564
    14573    16681    14576    14571    14703    16586    14706    14701    14572    16587    16589    14575
        3        3        3        3        0        0        0        0       20        0     1158     8477     9409     9410     8478     8520     9362     9363     8521
    14443    16776    14446    14441    14573    16681    14576    14571    14442    16682    16684    14445
! ... 3517 like lines cut
!Material Id = {D1B722F1-6574-48F0-B1FA-9CB5C42BE7CA}
/com,*********** Elements for Body 4 "Solid" ***********
et,4,186
keyo,4,2,1          ! set full integration on SOLID186
eblock,19,solid,,432
(19i9)
        4        4        4        4        0        0        0        0       20        0     4101    27352    27397    27398    27353    27388    27779    27778    27387
    28837    28964    28840    28835    28944    29716    28943    28941    28836    28966    28969    28839
        4        4        4        4        0        0        0        0       20        0     4102    27339    27418    27419    27340    27352    27397    27398    27353
    28794    29026    28797    28792    28837    28964    28840    28835    28793    28965    28968    28796
        4        4        4        4        0        0        0        0       20        0     4103    27326    27439    27440    27327    27339    27418    27419    27340
    28751    29069    28754    28749    28794    29026    28797    28792    28750    29027    29029    28753
        4        4        4        4        0        0        0        0       20        0     4104    27313    27460    27461    27314    27326    27439    27440    27327
    28708    29112    28711    28706    28751    29069    28754    28749    28707    29070    29072    28710
        4        4        4        4        0        0        0        0       20        0     4105    27300    27481    27482    27301    27313    27460    27461    27314
    28665    29155    28668    28663    28708    29112    28711    28706    28664    29113    29115    28667
        4        4        4        4        0        0        0        0       20        0     4106    27287    27502    27503    27288    27300    27481    27482    27301
    28622    29198    28625    28620    28665    29155    28668    28663    28621    29156    29158    28624
        4        4        4        4        0        0        0        0       20        0     4107    27274    27523    27524    27275    27287    27502    27503    27288
    28579    29241    28582    28577    28622    29198    28625    28620    28578    29199    29201    28581
        4        4        4        4        0        0        0        0       20        0     4108    27261    27544    27545    27262    27274    27523    27524    27275
    28536    29284    28539    28534    28579    29241    28582    28577    28535    29242    29244    28538
        4        4        4        4        0        0        0        0       20        0     4109    27248    27565    27566    27249    27261    27544    27545    27262
    28493    29327    28496    28491    28536    29284    28539    28534    28492    29285    29287    28495
        4        4        4        4        0        0        0        0       20        0     4110    27235    27586    27587    27236    27248    27565    27566    27249
    28450    29370    28453    28448    28493    29327    28496    28491    28449    29328    29330    28452
! ... 845 like lines cut
!Material Id = {4BA53819-1CAD-4E4A-A422-7A1665065DEE}
/com,*********** Elements for Body 5 "Solid" ***********
et,5,186
keyo,5,2,1          ! set full integration on SOLID186
eblock,19,solid,,1184
(19i9)
        5        5        5        5        0        0        0        0       20        0     2917    20042    20133    20134    20043    20116    21298    21297    20115
    24486    24702    24489    24484    24666    27015    24664    24662    24485    24704    24707    24488
        5        5        5        5        0        0        0        0       20        0     2918    20015    20164    20165    20016    20042    20133    20134    20043
    24400    24794    24403    24398    24486    24702    24489    24484    24399    24703    24706    24402
        5        5        5        5        0        0        0        0       20        0     2919    19988    20195    20196    19989    20015    20164    20165    20016
    24314    24857    24317    24312    24400    24794    24403    24398    24313    24795    24797    24316
        5        5        5        5        0        0        0        0       20        0     2920    19961    20226    20227    19962    19988    20195    20196    19989
    24228    24920    24231    24226    24314    24857    24317    24312    24227    24858    24860    24230
        5        5        5        5        0        0        0        0       20        0     2921    19934    20257    20258    19935    19961    20226    20227    19962
    24142    24983    24145    24140    24228    24920    24231    24226    24141    24921    24923    24144
        5        5        5        5        0        0        0        0       20        0     2922    19907    20288    20289    19908    19934    20257    20258    19935
    24056    25046    24059    24054    24142    24983    24145    24140    24055    24984    24986    24058
        5        5        5        5        0        0        0        0       20        0     2923    19880    20319    20320    19881    19907    20288    20289    19908
    23970    25109    23973    23968    24056    25046    24059    24054    23969    25047    25049    23972
        5        5        5        5        0        0        0        0       20        0     2924    19853    20350    20351    19854    19880    20319    20320    19881
    23884    25172    23887    23882    23970    25109    23973    23968    23883    25110    25112    23886
        5        5        5        5        0        0        0        0       20        0     2925    19826    20381    20382    19827    19853    20350    20351    19854
    23798    25235    23801    23796    23884    25172    23887    23882    23797    25173    25175    23800
        5        5        5        5        0        0        0        0       20        0     2926    19799    20412    20413    19800    19826    20381    20382    19827
    23712    25298    23715    23710    23798    25235    23801    23796    23711    25236    25238    23714
! ... 2349 like lines cut
!Material Id = {A1FFB3CD-1206-4592-ACB7-37EA143F44C7}
/wb,elem,end               !  done creating elements
/com,*********** Send User Defined Coordinate System(s) ***********
csys,0
toffst,273.15,  ! Temperature offset from absolute zero
/com,*********** Set Reference Temperature ***********
tref,22.
/wb,mat,start              !  starting to send materials
/com,*********** Send Materials ***********
MP,DENS,1,1.2e-15,	! kg um^-3
MP,EX,1,500,	! MPa
MP,NUXY,1,0.47,

MP,DENS,2,2.3e-15,	! kg um^-3
MP,EX,2,500,	! MPa
MP,NUXY,2,0.49,

MP,DENS,3,1.208e-15,	! kg um^-3
MP,EX,3,4500,	! MPa
MP,NUXY,3,0.07,

MP,DENS,4,2.7e-15,	! kg um^-3
MP,EX,4,730000,	! MPa
MP,NUXY,4,0.33,

MP,EX,5,0.00214,	! MPa
MP,NUXY,5,0.48,
MP,DENS,5,1.15e-15,	! kg um^-3

/wb,mat,end                !  done sending materials
!************************* Model Summary ********************
!Solid,	silicon rubber,	matid,	1
!Solid,	si_glass,	matid,	2
!Solid,	polysterene,	matid,	3
!Solid,	aluminium,	matid,	4
!Solid,	nylon,	matid,	5
!************************* End Model Summary ********************
! get the diagonal of the bounding box. Needed later for other things
*get,_xmin,node,,mnloc,x
*get,_ymin,node,,mnloc,y
*get,_zmin,node,,mnloc,z
*get,_xmax,node,,mxloc,x
*get,_ymax,node,,mxloc,y
*get,_zmax,node,,mxloc,z
_ASMDIAG=(_xmax-_xmin)*(_xmax-_xmin)+(_ymax-_ymin)*(_ymax-_ymin)+(_zmax-_zmin)*(_zmax-_zmin)
_ASMDIAG=SQRT(_ASMDIAG)
/wb,contact,start          !  starting to send contact
/com,*********** Create Contact "Contact Region" ***********
/com,            Real Contact Set For Above Contact Is 7 & 6 
*set,tid,7
*set,cid,6
r,tid
r,cid
et,tid,170
et,cid,174
eblock,10,,,1496
(15i9)
     4533        7        7        7        0     7438     7440     8883     7463    11327    11331    11377    11328
     4534        7        7        7        0     8839     8915     8916     8882    15537    15732    15665    15536
     4535        7        7        7        0     7506     7463     8883     8884    11376    11377    15668    11507
     4536        7        7        7        0     7549     7506     8884     8885    11506    11507    15670    11637
     4537        7        7        7        0     7592     7549     8885     8886    11636    11637    15672    11767
     4538        7        7        7        0     7635     7592     8886     8887    11766    11767    15674    11897
     4539        7        7        7        0     7678     7635     8887     8888    11896    11897    15676    12027
     4540        7        7        7        0     7721     7678     8888     8889    12026    12027    15678    12157
     4541        7        7        7        0     7764     7721     8889     8890    12156    12157    15680    12287
     4542        7        7        7        0     7807     7764     8890     8891    12286    12287    15682    12417
     4543        7        7        7        0     7850     7807     8891     8892    12416    12417    15684    12547
     4544        7        7        7        0     7893     7850     8892     8893    12546    12547    15686    12677
     4545        7        7        7        0     7936     7893     8893     8894    12676    12677    15688    12807
     4546        7        7        7        0     7979     7936     8894     8895    12806    12807    15690    12937
     4547        7        7        7        0     8022     7979     8895     8896    12936    12937    15692    13067
     4548        7        7        7        0     8065     8022     8896     8897    13066    13067    15694    13197
     4549        7        7        7        0     8108     8065     8897     8898    13196    13197    15696    13327
     4550        7        7        7        0     8151     8108     8898     8899    13326    13327    15698    13457
     4551        7        7        7        0     8194     8151     8899     8900    13456    13457    15700    13587
     4552        7        7        7        0     8237     8194     8900     8901    13586    13587    15702    13717
! ... 1477 like lines cut
eblock,10,,,1496
(15i9)
     6029        6        6        6        0     7438     7440     8883     7463    11327    11331    11377    11328
     6030        6        6        6        0     8839     8915     8916     8882    15537    15732    15665    15536
     6031        6        6        6        0     7506     7463     8883     8884    11376    11377    15668    11507
     6032        6        6        6        0     7549     7506     8884     8885    11506    11507    15670    11637
     6033        6        6        6        0     7592     7549     8885     8886    11636    11637    15672    11767
     6034        6        6        6        0     7635     7592     8886     8887    11766    11767    15674    11897
     6035        6        6        6        0     7678     7635     8887     8888    11896    11897    15676    12027
     6036        6        6        6        0     7721     7678     8888     8889    12026    12027    15678    12157
     6037        6        6        6        0     7764     7721     8889     8890    12156    12157    15680    12287
     6038        6        6        6        0     7807     7764     8890     8891    12286    12287    15682    12417
     6039        6        6        6        0     7850     7807     8891     8892    12416    12417    15684    12547
     6040        6        6        6        0     7893     7850     8892     8893    12546    12547    15686    12677
     6041        6        6        6        0     7936     7893     8893     8894    12676    12677    15688    12807
     6042        6        6        6        0     7979     7936     8894     8895    12806    12807    15690    12937
     6043        6        6        6        0     8022     7979     8895     8896    12936    12937    15692    13067
     6044        6        6        6        0     8065     8022     8896     8897    13066    13067    15694    13197
     6045        6        6        6        0     8108     8065     8897     8898    13196    13197    15696    13327
     6046        6        6        6        0     8151     8108     8898     8899    13326    13327    15698    13457
     6047        6        6        6        0     8194     8151     8899     8900    13456    13457    15700    13587
     6048        6        6        6        0     8237     8194     8900     8901    13586    13587    15702    13717
! ... 1477 like lines cut
eblock,10,,,396
(15i9)
     7525        6        7        6        0    27731    27753    27117    27115    29667    28084    28077    28079
     7526        6        7        6        0    27752    27770    27769    27395    29688    29706    28960    28959
     7527        6        7        6        0    27731    27710    27754    27753    29624    29625    29690    29667
     7528        6        7        6        0    27710    27689    27755    27754    29581    29582    29691    29625
     7529        6        7        6        0    27689    27668    27756    27755    29538    29539    29692    29582
     7530        6        7        6        0    27668    27647    27757    27756    29495    29496    29693    29539
     7531        6        7        6        0    27647    27626    27758    27757    29452    29453    29694    29496
     7532        6        7        6        0    27626    27605    27759    27758    29409    29410    29695    29453
     7533        6        7        6        0    27605    27584    27760    27759    29366    29367    29696    29410
     7534        6        7        6        0    27584    27563    27761    27760    29323    29324    29697    29367
     7535        6        7        6        0    27563    27542    27762    27761    29280    29281    29698    29324
     7536        6        7        6        0    27542    27521    27763    27762    29237    29238    29699    29281
     7537        6        7        6        0    27521    27500    27764    27763    29194    29195    29700    29238
     7538        6        7        6        0    27500    27479    27765    27764    29151    29152    29701    29195
     7539        6        7        6        0    27479    27458    27766    27765    29108    29109    29702    29152
     7540        6        7        6        0    27458    27437    27767    27766    29065    29066    29703    29109
     7541        6        7        6        0    27437    27416    27768    27767    29022    29023    29704    29066
     7542        6        7        6        0    27416    27395    27769    27768    28958    28960    29705    29023
     7543        6        7        6        0    27395    27396    27780    27752    28957    28963    29689    28959
     7544        6        7        6        0    27416    27417    27396    27395    29021    28962    28957    28958
! ... 377 like lines cut
eblock,10,,,396
(15i9)
     7921        7        6        7        0    27731    27753    27117    27115    29667    28084    28077    28079
     7922        7        6        7        0    27752    27770    27769    27395    29688    29706    28960    28959
     7923        7        6        7        0    27731    27710    27754    27753    29624    29625    29690    29667
     7924        7        6        7        0    27710    27689    27755    27754    29581    29582    29691    29625
     7925        7        6        7        0    27689    27668    27756    27755    29538    29539    29692    29582
     7926        7        6        7        0    27668    27647    27757    27756    29495    29496    29693    29539
     7927        7        6        7        0    27647    27626    27758    27757    29452    29453    29694    29496
     7928        7        6        7        0    27626    27605    27759    27758    29409    29410    29695    29453
     7929        7        6        7        0    27605    27584    27760    27759    29366    29367    29696    29410
     7930        7        6        7        0    27584    27563    27761    27760    29323    29324    29697    29367
     7931        7        6        7        0    27563    27542    27762    27761    29280    29281    29698    29324
     7932        7        6        7        0    27542    27521    27763    27762    29237    29238    29699    29281
     7933        7        6        7        0    27521    27500    27764    27763    29194    29195    29700    29238
     7934        7        6        7        0    27500    27479    27765    27764    29151    29152    29701    29195
     7935        7        6        7        0    27479    27458    27766    27765    29108    29109    29702    29152
     7936        7        6        7        0    27458    27437    27767    27766    29065    29066    29703    29109
     7937        7        6        7        0    27437    27416    27768    27767    29022    29023    29704    29066
     7938        7        6        7        0    27416    27395    27769    27768    28958    28960    29705    29023
     7939        7        6        7        0    27395    27396    27780    27752    28957    28963    29689    28959
     7940        7        6        7        0    27416    27417    27396    27395    29021    28962    28957    28958
! ... 377 like lines cut
esel,s,type,,6
cm,_AllContacts,elem
keyo,cid,8,2               ! auto create asymmetric contact (from Program Controlled setting)
keyo,cid,10,2              ! adjust contact stiffness each NR iteration (from Program Controlled setting)
keyo,cid,12,5              ! bonded always
keyo,cid,2,0               ! augmented Lagrange (from Program Controlled setting)
keyo,cid,4,0               ! on Gauss point (from Program Controlled setting)
keyo,cid,9,1               ! ignore initial gaps/penetration
keyo,cid,7,0               ! No Prediction
rmod,tid,3,10.	! FKN
rmod,tid,5,0.	! ICONT
rmod,tid,6,0.	! PINB
rmod,tid,10,0.	! CNOF
rmod,tid,12,0.	! FKT
rmod,cid,3,10.	! FKN
rmod,cid,5,0.	! ICONT
rmod,cid,6,0.	! PINB
rmod,cid,10,0.	! CNOF
rmod,cid,12,0.	! FKT
/com,*********** Create Contact "Contact Region 2" ***********
/com,            Real Contact Set For Above Contact Is 9 & 8 
*set,tid,9
*set,cid,8
r,tid
r,cid
et,tid,170
et,cid,174
eblock,10,,,252
(15i9)
     8317        9        9        9        0    27133    27135    27365    27143    28125    28129    28145    28126
     8318        9        9        9        0    27351    27381    27382    27364    28833    28925    28874    28832
     8319        9        9        9        0    27156    27143    27365    27366    28144    28145    28877    28188
     8320        9        9        9        0    27169    27156    27366    27367    28187    28188    28880    28231
     8321        9        9        9        0    27182    27169    27367    27368    28230    28231    28883    28274
     8322        9        9        9        0    27195    27182    27368    27369    28273    28274    28886    28317
     8323        9        9        9        0    27208    27195    27369    27370    28316    28317    28889    28360
     8324        9        9        9        0    27221    27208    27370    27371    28359    28360    28892    28403
     8325        9        9        9        0    27234    27221    27371    27372    28402    28403    28895    28446
     8326        9        9        9        0    27247    27234    27372    27373    28445    28446    28898    28489
     8327        9        9        9        0    27260    27247    27373    27374    28488    28489    28901    28532
     8328        9        9        9        0    27273    27260    27374    27375    28531    28532    28904    28575
     8329        9        9        9        0    27286    27273    27375    27376    28574    28575    28907    28618
     8330        9        9        9        0    27299    27286    27376    27377    28617    28618    28910    28661
     8331        9        9        9        0    27312    27299    27377    27378    28660    28661    28913    28704
     8332        9        9        9        0    27325    27312    27378    27379    28703    28704    28916    28747
     8333        9        9        9        0    27338    27325    27379    27380    28746    28747    28919    28790
     8334        9        9        9        0    27351    27338    27380    27381    28789    28790    28922    28833
     8335        9        9        9        0    27143    27144    27134    27133    28143    28127    28124    28126
     8336        9        9        9        0    27156    27157    27144    27143    28186    28148    28143    28144
! ... 233 like lines cut
eblock,10,,,252
(15i9)
     8569        8        8        8        0    27133    27135    27365    27143    28125    28129    28145    28126
     8570        8        8        8        0    27351    27381    27382    27364    28833    28925    28874    28832
     8571        8        8        8        0    27156    27143    27365    27366    28144    28145    28877    28188
     8572        8        8        8        0    27169    27156    27366    27367    28187    28188    28880    28231
     8573        8        8        8        0    27182    27169    27367    27368    28230    28231    28883    28274
     8574        8        8        8        0    27195    27182    27368    27369    28273    28274    28886    28317
     8575        8        8        8        0    27208    27195    27369    27370    28316    28317    28889    28360
     8576        8        8        8        0    27221    27208    27370    27371    28359    28360    28892    28403
     8577        8        8        8        0    27234    27221    27371    27372    28402    28403    28895    28446
     8578        8        8        8        0    27247    27234    27372    27373    28445    28446    28898    28489
     8579        8        8        8        0    27260    27247    27373    27374    28488    28489    28901    28532
     8580        8        8        8        0    27273    27260    27374    27375    28531    28532    28904    28575
     8581        8        8        8        0    27286    27273    27375    27376    28574    28575    28907    28618
     8582        8        8        8        0    27299    27286    27376    27377    28617    28618    28910    28661
     8583        8        8        8        0    27312    27299    27377    27378    28660    28661    28913    28704
     8584        8        8        8        0    27325    27312    27378    27379    28703    28704    28916    28747
     8585        8        8        8        0    27338    27325    27379    27380    28746    28747    28919    28790
     8586        8        8        8        0    27351    27338    27380    27381    28789    28790    28922    28833
     8587        8        8        8        0    27143    27144    27134    27133    28143    28127    28124    28126
     8588        8        8        8        0    27156    27157    27144    27143    28186    28148    28143    28144
! ... 233 like lines cut
eblock,10,,,1184
(15i9)
     8821        8        9        8        0    21216    21248    19050    19048    26932    21363    21356    21358
     8822        8        9        8        0    21247    21284    21283    20131    26963    27000    24698    24697
     8823        8        9        8        0    21216    21185    21249    21248    26869    26870    26965    26932
     8824        8        9        8        0    21185    21154    21250    21249    26806    26807    26966    26870
     8825        8        9        8        0    21154    21123    21251    21250    26743    26744    26967    26807
     8826        8        9        8        0    21123    21092    21252    21251    26680    26681    26968    26744
     8827        8        9        8        0    21092    21061    21253    21252    26617    26618    26969    26681
     8828        8        9        8        0    21061    21030    21254    21253    26554    26555    26970    26618
     8829        8        9        8        0    21030    20999    21255    21254    26491    26492    26971    26555
     8830        8        9        8        0    20999    20968    21256    21255    26428    26429    26972    26492
     8831        8        9        8        0    20968    20937    21257    21256    26365    26366    26973    26429
     8832        8        9        8        0    20937    20906    21258    21257    26302    26303    26974    26366
     8833        8        9        8        0    20906    20875    21259    21258    26239    26240    26975    26303
     8834        8        9        8        0    20875    20844    21260    21259    26176    26177    26976    26240
     8835        8        9        8        0    20844    20813    21261    21260    26113    26114    26977    26177
     8836        8        9        8        0    20813    20782    21262    21261    26050    26051    26978    26114
     8837        8        9        8        0    20782    20751    21263    21262    25987    25988    26979    26051
     8838        8        9        8        0    20751    20720    21264    21263    25924    25925    26980    25988
     8839        8        9        8        0    20720    20689    21265    21264    25861    25862    26981    25925
     8840        8        9        8        0    20689    20658    21266    21265    25798    25799    26982    25862
! ... 1165 like lines cut
eblock,10,,,1184
(15i9)
    10005        9        8        9        0    21216    21248    19050    19048    26932    21363    21356    21358
    10006        9        8        9        0    21247    21284    21283    20131    26963    27000    24698    24697
    10007        9        8        9        0    21216    21185    21249    21248    26869    26870    26965    26932
    10008        9        8        9        0    21185    21154    21250    21249    26806    26807    26966    26870
    10009        9        8        9        0    21154    21123    21251    21250    26743    26744    26967    26807
    10010        9        8        9        0    21123    21092    21252    21251    26680    26681    26968    26744
    10011        9        8        9        0    21092    21061    21253    21252    26617    26618    26969    26681
    10012        9        8        9        0    21061    21030    21254    21253    26554    26555    26970    26618
    10013        9        8        9        0    21030    20999    21255    21254    26491    26492    26971    26555
    10014        9        8        9        0    20999    20968    21256    21255    26428    26429    26972    26492
    10015        9        8        9        0    20968    20937    21257    21256    26365    26366    26973    26429
    10016        9        8        9        0    20937    20906    21258    21257    26302    26303    26974    26366
    10017        9        8        9        0    20906    20875    21259    21258    26239    26240    26975    26303
    10018        9        8        9        0    20875    20844    21260    21259    26176    26177    26976    26240
    10019        9        8        9        0    20844    20813    21261    21260    26113    26114    26977    26177
    10020        9        8        9        0    20813    20782    21262    21261    26050    26051    26978    26114
    10021        9        8        9        0    20782    20751    21263    21262    25987    25988    26979    26051
    10022        9        8        9        0    20751    20720    21264    21263    25924    25925    26980    25988
    10023        9        8        9        0    20720    20689    21265    21264    25861    25862    26981    25925
    10024        9        8        9        0    20689    20658    21266    21265    25798    25799    26982    25862
! ... 1165 like lines cut
esel,s,type,,8
cm,contactElems41,elem
cmsel,a,_AllContacts,elem
cm,_AllContacts,elem
cmsel,s,contactElems41,elem
cmdele,contactElems41
keyo,cid,8,2               ! auto create asymmetric contact (from Program Controlled setting)
keyo,cid,10,2              ! adjust contact stiffness each NR iteration (from Program Controlled setting)
keyo,cid,12,5              ! bonded always
keyo,cid,2,0               ! augmented Lagrange (from Program Controlled setting)
keyo,cid,4,0               ! on Gauss point (from Program Controlled setting)
keyo,cid,9,1               ! ignore initial gaps/penetration
keyo,cid,7,0               ! No Prediction
rmod,tid,3,10.	! FKN
rmod,tid,5,0.	! ICONT
rmod,tid,6,0.	! PINB
rmod,tid,10,0.	! CNOF
rmod,tid,12,0.	! FKT
rmod,cid,3,10.	! FKN
rmod,cid,5,0.	! ICONT
rmod,cid,6,0.	! PINB
rmod,cid,10,0.	! CNOF
rmod,cid,12,0.	! FKT
nsel,all
esel,all
/wb,contact,end            !  done creating contacts
/golist
/wb,load,start             !  starting to send loads
/com,*********** Fixed Supports ***********
CMBLOCK,_FIXEDSU,NODE,      208
(8i10)
     27099     27100     27101     27102     27103     27104     27105     27106
     27107     27108     27109     27110     27111     27112     27113     27114
     27115     27116     27117     27118     27119     27120     27121     27122
     27123     27124     27125     27126     27127     27128     27129     27130
     27131     27132     27133     27134     27135     27136     27137     27138
     27139     27140     27141     27142     27364     27382     27383     27384
     27385     27386     27387     27388     27389     27390     27391     27392
     27393     27394     27752     27770     27771     27772     27773     27774
     27775     27776     27777     27778     27779     27780     27781     27782
     27783     27784     27785     27786     27787     27788     27789     27790
     28033     28034     28035     28036     28037     28038     28039     28040
     28041     28042     28043     28044     28045     28046     28047     28048
     28049     28050     28051     28052     28053     28054     28055     28057
     28059     28061     28062     28064     28065     28067     28068     28070
     28071     28073     28074     28076     28077     28078     28080     28082
     28083     28085     28086     28088     28090     28092     28093     28095
     28096     28098     28099     28101     28102     28104     28105     28107
     28108     28110     28111     28113     28115     28116     28118     28120
     28122     28124     28125     28128     28130     28132     28134     28136
     28138     28140     28874     28875     28876     28928     28929     28930
! ... 6 like lines cut

cmsel,s,_FIXEDSU
d,all,all
nsel,all
nsel,all
/com,*********** Define Pressure Using Surface Effect Elements ***********
et,10,154
eblock,10,,,288
(15i9)
    11189       10       10       10        0     5190     5153     5154     5155     5889     5887     5891     5893
    11190       10       10       10        0     5672     5674     5147     5400     7159     5866     5864     6615
    11191       10       10       10        0     5190     5225     5152     5153     5996     5885     5883     5889
    11192       10       10       10        0     5225     5260     5151     5152     6099     5881     5879     5885
    11193       10       10       10        0     5260     5295     5150     5151     6202     5877     5875     5881
    11194       10       10       10        0     5295     5330     5149     5150     6305     5873     5871     5877
    11195       10       10       10        0     5330     5365     5148     5149     6408     5869     5867     5873
    11196       10       10       10        0     5365     5400     5147     5148     6511     5864     5862     5869
    11197       10       10       10        0     5400     5399     5673     5672     6611     6613     7158     6615
    11198       10       10       10        0     5365     5364     5399     5400     6508     6509     6611     6511
    11199       10       10       10        0     5330     5329     5364     5365     6405     6406     6508     6408
    11200       10       10       10        0     5295     5294     5329     5330     6302     6303     6405     6305
    11201       10       10       10        0     5260     5259     5294     5295     6199     6200     6302     6202
    11202       10       10       10        0     5225     5224     5259     5260     6096     6097     6199     6099
    11203       10       10       10        0     5190     5189     5224     5225     5993     5994     6096     5996
    11204       10       10       10        0     5155     5130     5189     5190     5813     5814     5993     5893
    11205       10       10       10        0     5399     5398     5671     5673     6608     6610     7156     6613
    11206       10       10       10        0     5364     5363     5398     5399     6505     6506     6608     6509
    11207       10       10       10        0     5329     5328     5363     5364     6402     6403     6505     6406
    11208       10       10       10        0     5294     5293     5328     5329     6299     6300     6402     6303
! ... 269 like lines cut
esel,s,type,,10
esel,all

*DIM,_loadvari128,TABLE,2,1,1,TIME,
! Time values
_loadvari128(1,0,1) = 0.
_loadvari128(2,0,1) = 1.
! Load values
_loadvari128(1,1,1) = 0.
_loadvari128(2,1,1) = 1.

esel,all
/gst,on,on
fini
*get,_numnode,node,0,count
*get,_numelem,elem,0,count
*get, _MAXELEMNUM, elem, 0, NUM, MAX
*get, _MAXNODENUM, node, 0, NUM, MAX
*get, _MAXELEMTYPE, etyp, 0, NUM, MAX
*get, _MAXREALCONST, real, 0, NUM, MAX
/go
/wb,load,end               !  done creating loads
/com,--- Number of total nodes = %_numnode%
/com,--- Number of contact elements = 6944
/com,--- Number of spring elements = 0
/com,--- Number of bearing elements = 0
/com,--- Number of solid elements = 4532
/com,--- Number of total elements = %_numelem%
*get,_wallbsol,active,,time,wall
/com,****************************************************************************
/com,*************************    SOLUTION       ********************************
/com,****************************************************************************
/solu
antype,0                   ! static analysis
neqit,1,force              ! Force 1 eq iteration since only nonlinearity is bonded/no sep contact
pred,off
eqsl,sparse,,,,,1
cntr,print,1               ! print out contact info and also make no initial contact an error
nldiag,cont,iter           ! print out contact info each equilibrium iteration
resc,,none                 ! Do not keep any restart files
/com,****************************************************
/com,******************* SOLVE FOR LS 1 ****************
esel,s,type,,10
nsle
sf,all,pres,%_loadvari128%
nsel,all
esel,all
esel,all
/nopr
/gopr
nsub,1,1,1
time,1.
outres,erase
outres,all,none
outres,nsol,all
outres,rsol,all
outres,strs,all
outres,epel,all
outres,eppl,all
stabilize,off                   ! Stabilization turned OFF by user
! *********** WB SOLVE COMMAND ***********
! check interactive state
*get,ANSINTER_,active,,int
*if,ANSINTER_,ne,0,then
/eof
*endif
solve
/com *************** Write FE CONNECTORS ********* 
CEWRITE,file,ce,,INTE
/com,****************************************************
/com,*************** FINISHED SOLVE FOR LS 1 *************
*set,_DS_PROGRESS          ! turn off progress updates to avoid virus scanning bug
*get,_wallasol,active,,time,wall
/post1
xmlo,ENCODING,ISO-8859-1
xmlo,parm
/xml,parm,xml
fini
/gopr
*get,_walldone,active,,time,wall
_preptime=(_wallbsol-_wallstrt)*3600
_solvtime=(_wallasol-_wallbsol)*3600
_posttime=(_walldone-_wallasol)*3600
_totaltim=(_walldone-_wallstrt)*3600
/wb,file,end               ! done with WB generated input
